Version 4
SHEET 1 1632 832
WIRE 288 -256 128 -256
WIRE 656 -256 288 -256
WIRE 784 -256 656 -256
WIRE 1232 -256 784 -256
WIRE 1424 -256 1232 -256
WIRE 128 -224 128 -256
WIRE 784 -224 784 -256
WIRE 656 -144 656 -256
WIRE 288 -128 288 -176
WIRE 784 -96 784 -144
WIRE 784 -96 720 -96
WIRE 128 -80 128 -160
WIRE 224 -80 128 -80
WIRE 720 -48 656 -48
WIRE 1232 -48 1232 -256
WIRE 128 -32 128 -80
WIRE 944 0 784 0
WIRE 1168 0 944 0
WIRE 944 32 944 0
WIRE 1424 32 1424 -256
WIRE 784 80 784 0
WIRE 1232 80 1232 48
WIRE 1360 80 1232 80
WIRE 288 128 288 -32
WIRE 288 128 192 128
WIRE 384 128 288 128
WIRE 944 128 944 112
WIRE 944 128 848 128
WIRE 944 160 944 128
WIRE 128 176 -32 176
WIRE 144 176 128 176
WIRE 512 176 448 176
WIRE 592 176 512 176
WIRE 512 192 512 176
WIRE -32 208 -32 176
WIRE 784 240 784 176
WIRE 944 240 784 240
WIRE 1232 256 1232 160
WIRE 1424 256 1424 208
WIRE 1424 256 1232 256
WIRE 1504 256 1424 256
WIRE 1536 256 1504 256
WIRE 512 304 512 272
WIRE 672 304 672 176
WIRE 1504 304 1504 256
WIRE 1504 304 672 304
WIRE -32 352 -32 288
WIRE 1232 368 1232 256
WIRE 1424 368 1424 256
WIRE 784 384 784 240
WIRE 784 384 688 384
WIRE 1168 384 784 384
WIRE 784 416 784 384
WIRE 192 464 192 224
WIRE 624 464 624 384
WIRE 624 464 192 464
WIRE 720 464 624 464
WIRE 1232 496 1232 448
WIRE 1360 496 1232 496
WIRE 1232 512 1232 496
WIRE 784 544 784 512
WIRE 192 560 192 464
WIRE 1168 560 1168 384
WIRE 192 704 192 640
WIRE 384 704 384 224
WIRE 384 704 192 704
WIRE 784 704 784 624
WIRE 784 704 384 704
WIRE 1232 704 1232 608
WIRE 1232 704 784 704
WIRE 1328 704 1232 704
WIRE 1424 704 1424 544
WIRE 1424 704 1328 704
FLAG -32 352 0
FLAG 512 304 0
FLAG 128 48 0
FLAG -208 -16 0
FLAG -208 -96 35V
FLAG 128 -256 35V
FLAG 656 32 0
FLAG 1536 256 Out
FLAG -80 -16 -35V
FLAG -80 -96 0
FLAG 1328 704 -35V
SYMBOL voltage -32 192 R0
WINDOW 0 -158 22 Left 2
WINDOW 3 -232 53 Left 2
WINDOW 123 0 0 Left 0
WINDOW 39 0 0 Left 0
SYMATTR InstName Input
SYMATTR Value SINE(0 1mv 20k)
SYMBOL pnp 128 224 M180
WINDOW 0 37 44 Left 2
WINDOW 3 -27 -16 Left 2
SYMATTR InstName Q1
SYMATTR Value 2N5401
SYMBOL pnp 448 224 R180
WINDOW 0 39 52 Left 2
WINDOW 3 -28 117 Left 2
SYMATTR InstName Q2
SYMATTR Value 2N5401
SYMBOL res 496 176 R0
SYMATTR InstName R2
SYMATTR Value 1k
SYMBOL res 688 160 R90
WINDOW 0 0 56 VBottom 2
WINDOW 3 32 56 VTop 2
SYMATTR InstName R3
SYMATTR Value 19k
SYMBOL pnp 224 -32 M180
WINDOW 0 31 48 Left 2
WINDOW 3 82 45 Left 2
SYMATTR InstName Q3
SYMATTR Value 2N5401
SYMBOL res 112 -48 R0
SYMATTR InstName R4
SYMATTR Value 33k
SYMBOL res 272 -272 R0
SYMATTR InstName R5
SYMATTR Value 590
SYMBOL LED 112 -224 R0
SYMATTR InstName D1
SYMBOL voltage -208 -112 R0
WINDOW 123 0 0 Left 0
WINDOW 39 0 0 Left 0
SYMATTR InstName V1
SYMATTR Value 35
SYMBOL pnp 720 -48 R180
SYMATTR InstName Q6
SYMATTR Value 2N5401
SYMBOL res 768 -240 R0
SYMATTR InstName R9
SYMATTR Value 62
SYMBOL pnp 720 0 M180
SYMATTR InstName Q7
SYMATTR Value 2N5401
SYMBOL res 640 -64 R0
SYMATTR InstName R10
SYMATTR Value 33k
SYMBOL res 928 16 R0
SYMATTR InstName R8
SYMATTR Value 1.2k
SYMBOL res 928 144 R0
SYMATTR InstName R7
SYMATTR Value 518
SYMBOL res 1216 64 R0
SYMATTR InstName R11
SYMATTR Value 33
SYMBOL res 1408 112 R0
SYMATTR InstName R13
SYMATTR Value 0.33
SYMBOL res 1216 352 R0
SYMATTR InstName R12
SYMATTR Value 33
SYMBOL res 1408 352 R0
SYMATTR InstName R14
SYMATTR Value 0.33
SYMBOL voltage -80 -112 R0
WINDOW 123 0 0 Left 0
WINDOW 39 0 0 Left 0
SYMATTR InstName V2
SYMATTR Value 35
SYMBOL res 176 544 R0
SYMATTR InstName R1
SYMATTR Value 1k
SYMBOL res 768 528 R0
SYMATTR InstName R6
SYMATTR Value 22
SYMBOL cap 688 368 R90
WINDOW 0 0 32 VBottom 2
WINDOW 3 32 32 VTop 2
SYMATTR InstName C1
SYMATTR Value 300p
SYMBOL 2n5551 752 464 R0
WINDOW 39 -11 294 Top 2
SYMATTR InstName U1
SYMBOL 2n5551 816 128 M0
WINDOW 39 78 673 Top 2
SYMATTR InstName U2
SYMBOL npn 1168 -48 R0
SYMATTR InstName Q4
SYMBOL pnp 1168 608 M180
SYMATTR InstName Q5
TEXT -168 104 Left 2 !.tran 5ms
